miqcp/testcases/nesta_case39_epri__api.m
%%%%%%%%%%%%%%%%%%%%%%%%%%%%%%%%%%%%%%%%%%%%%%%%%%%%%%%%%%%%%%%%%%%%%%%%%%%
%%%%                                                                  %%%%%
%%%%      NICTA Energy System Test Case Archive (NESTA) - v0.7.0      %%%%%
%%%%            Optimal Power Flow - Active Power Increase            %%%%%
%%%%                         05 - June - 2017                         %%%%%
%%%%                                                                  %%%%%
%%%%%%%%%%%%%%%%%%%%%%%%%%%%%%%%%%%%%%%%%%%%%%%%%%%%%%%%%%%%%%%%%%%%%%%%%%%
function mpc = nesta_case39_epri__api
mpc.version = '2';
mpc.baseMVA = 100.0;

%% bus data
%	bus_i	type	Pd	Qd	Gs	Bs	area	Vm	Va	baseKV	zone	Vmax	Vmin
mpc.bus = [
	1	 1	 160.92	 44.20	 0.0	 0.0	 2	    1.05517	  -17.33986	 345.0	 1	    1.06000	    0.94000;
	2	 1	 0.00	 0.00	 0.0	 0.0	 2	    1.04148	  -22.02249	 345.0	 1	    1.06000	    0.94000;
	3	 1	 530.89	 2.40	 0.0	 0.0	 2	    1.02315	  -25.95329	 345.0	 1	    1.06000	    0.94000;
	4	 1	 824.36	 184.00	 0.0	 0.0	 1	    1.00595	  -24.65555	 345.0	 1	    1.06000	    0.94000;
	5	 1	 0.00	 0.00	 0.0	 0.0	 1	    1.01731	  -20.41315	 345.0	 1	    1.06000	    0.94000;
	6	 1	 0.00	 0.00	 0.0	 0.0	 1	    1.02235	  -19.07403	 345.0	 1	    1.06000	    0.94000;
	7	 1	 385.47	 84.00	 0.0	 0.0	 1	    1.01022	  -22.04216	 345.0	 1	    1.06000	    0.94000;
	8	 1	 860.63	 176.60	 0.0	 0.0	 1	    1.00920	  -22.56059	 345.0	 1	    1.06000	    0.94000;
	9	 1	 6.50	 -66.60	 0.0	 0.0	 1	    1.05810	  -16.57143	 345.0	 1	    1.06000	    0.94000;
	10	 1	 0.00	 0.00	 0.0	 0.0	 1	    1.03325	  -17.63346	 345.0	 1	    1.06000	    0.94000;
	11	 1	 0.00	 0.00	 0.0	 0.0	 1	    1.02834	  -18.15657	 345.0	 1	    1.06000	    0.94000;
	12	 1	 14.06	 88.00	 0.0	 0.0	 1	    1.01417	  -18.69417	 345.0	 1	    1.06000	    0.94000;
	13	 1	 0.00	 0.00	 0.0	 0.0	 1	    1.02616	  -18.97215	 345.0	 1	    1.06000	    0.94000;
	14	 1	 0.00	 0.00	 0.0	 0.0	 1	    1.01493	  -22.24729	 345.0	 1	    1.06000	    0.94000;
	15	 1	 527.59	 153.00	 0.0	 0.0	 3	    1.00733	  -25.35133	 345.0	 1	    1.06000	    0.94000;
	16	 1	 542.43	 32.30	 0.0	 0.0	 3	    1.02112	  -23.98710	 345.0	 1	    1.06000	    0.94000;
	17	 1	 0.00	 0.00	 0.0	 0.0	 2	    1.02309	  -25.51370	 345.0	 1	    1.06000	    0.94000;
	18	 1	 260.50	 30.00	 0.0	 0.0	 2	    1.02134	  -26.40315	 345.0	 1	    1.06000	    0.94000;
	19	 1	 0.00	 0.00	 0.0	 0.0	 3	    1.05686	  -18.18132	 345.0	 1	    1.06000	    0.94000;
	20	 1	 1121.13	 103.00	 0.0	 0.0	 3	    1.01097	  -20.62322	 345.0	 1	    1.06000	    0.94000;
	21	 1	 451.75	 115.00	 0.0	 0.0	 3	    1.01337	  -20.97308	 345.0	 1	    1.06000	    0.94000;
	22	 1	 0.00	 0.00	 0.0	 0.0	 3	    1.02923	  -14.42510	 345.0	 1	    1.06000	    0.94000;
	23	 1	 408.06	 84.60	 0.0	 0.0	 3	    1.02497	  -14.45875	 345.0	 1	    1.06000	    0.94000;
	24	 1	 308.60	 -92.20	 0.0	 0.0	 3	    1.02441	  -23.48478	 345.0	 1	    1.06000	    0.94000;
	25	 1	 369.31	 47.20	 0.0	 0.0	 2	    1.04295	  -19.99555	 345.0	 1	    1.06000	    0.94000;
	26	 1	 229.17	 17.00	 0.0	 0.0	 2	    1.04313	  -23.85158	 345.0	 1	    1.06000	    0.94000;
	27	 1	 463.29	 75.50	 0.0	 0.0	 2	    1.02641	  -26.57426	 345.0	 1	    1.06000	    0.94000;
	28	 1	 339.64	 27.60	 0.0	 0.0	 3	    1.05352	  -20.40545	 345.0	 1	    1.06000	    0.94000;
	29	 1	 467.41	 26.90	 0.0	 0.0	 3	    1.06000	  -16.67083	 345.0	 1	    1.06000	    0.94000;
	30	 2	 0.00	 0.00	 0.0	 0.0	 2	    1.06000	  -22.02249	 345.0	 1	    1.06000	    0.94000;
	31	 3	 15.17	 4.60	 0.0	 0.0	 1	    1.06000	    0.00000	 345.0	 1	    1.06000	    0.94000;
	32	 2	 0.00	 0.00	 0.0	 0.0	 1	    1.02376	   -8.05997	 345.0	 1	    1.06000	    0.94000;
	33	 2	 0.00	 0.00	 0.0	 0.0	 3	    1.00883	  -10.99820	 345.0	 1	    1.06000	    0.94000;
	34	 2	 0.00	 0.00	 0.0	 0.0	 3	    1.06000	  -12.78307	 345.0	 1	    1.06000	    0.94000;
	35	 2	 0.00	 0.00	 0.0	 0.0	 3	    1.03117	   -7.56023	 345.0	 1	    1.06000	    0.94000;
	36	 2	 0.00	 0.00	 0.0	 0.0	 3	    1.06000	   -1.88362	 345.0	 1	    1.06000	    0.94000;
	37	 2	 0.00	 0.00	 0.0	 0.0	 2	    0.99570	   -8.35687	 345.0	 1	    1.06000	    0.94000;
	38	 2	 0.00	 0.00	 0.0	 0.0	 3	    1.05721	   -7.02647	 345.0	 1	    1.06000	    0.94000;
	39	 2	 1820.19	 250.00	 0.0	 0.0	 1	    1.06000	  -12.44432	 345.0	 1	    1.06000	    0.94000;
];

%% generator data
%	bus	Pg	Qg	Qmax	Qmin	Vg	mBase	status	Pmax	Pmin	Pc1	Pc2	Qc1min	Qc1max	Qc2min	Qc2max	ramp_agc	ramp_10	ramp_30	ramp_q	apf
mpc.gen = [
	30	 0.0	 257.198	 400.0	 -283.2	 1.06	 100.0	 1	 181	 0.0	 0.0	 0.0	 0.0	 0.0	 0.0	 0.0	 0.0	 0.0	 0.0	 0.0	 0.0; % COW
	31	 1339.05	 670.25	 853.2	 -853.2	 1.06	 100.0	 1	 1576	 0.0	 0.0	 0.0	 0.0	 0.0	 0.0	 0.0	 0.0	 0.0	 0.0	 0.0	 0.0; % COW
	32	 822.08	 366.313	 481.2	 -481.2	 1.02376	 100.0	 1	 962	 0.0	 0.0	 0.0	 0.0	 0.0	 0.0	 0.0	 0.0	 0.0	 0.0	 0.0	 0.0; % COW
	33	 885.396	 161.473	 796.0	 -796.0	 1.00883	 100.0	 1	 1592	 0.0	 0.0	 0.0	 0.0	 0.0	 0.0	 0.0	 0.0	 0.0	 0.0	 0.0	 0.0; % COW
	34	 822.662	 355.878	 485.0	 -485.0	 1.06	 100.0	 1	 970	 0.0	 0.0	 0.0	 0.0	 0.0	 0.0	 0.0	 0.0	 0.0	 0.0	 0.0	 0.0; % NG
	35	 865.468	 246.912	 434.0	 -434.0	 1.03117	 100.0	 1	 868	 0.0	 0.0	 0.0	 0.0	 0.0	 0.0	 0.0	 0.0	 0.0	 0.0	 0.0	 0.0; % COW
	36	 873.626	 216.281	 1013.0	 -1013.0	 1.06	 100.0	 1	 2026	 0.0	 0.0	 0.0	 0.0	 0.0	 0.0	 0.0	 0.0	 0.0	 0.0	 0.0	 0.0; % COW
	37	 880.299	 -26.619	 570.0	 -570.0	 0.9957	 100.0	 1	 1139	 0.0	 0.0	 0.0	 0.0	 0.0	 0.0	 0.0	 0.0	 0.0	 0.0	 0.0	 0.0; % COW
	38	 1184.112	 194.626	 943.0	 -943.0	 1.05721	 100.0	 1	 1885	 0.0	 0.0	 0.0	 0.0	 0.0	 0.0	 0.0	 0.0	 0.0	 0.0	 0.0	 0.0; % COW
	39	 2526.0	 168.719	 1263.0	 -1263.0	 1.06	 100.0	 1	 2526	 0.0	 0.0	 0.0	 0.0	 0.0	 0.0	 0.0	 0.0	 0.0	 0.0	 0.0	 0.0; % COW
];

%% generator cost data
%	2	startup	shutdown	n	c(n-1)	...	c0
mpc.gencost = [
	2	 0.0	 0.0	 3	   0.000000	   1.165120	   0.000000; % COW
	2	 0.0	 0.0	 3	   0.000000	   0.634989	   0.000000; % COW
	2	 0.0	 0.0	 3	   0.000000	   0.551479	   0.000000; % COW
	2	 0.0	 0.0	 3	   0.000000	   0.947212	   0.000000; % COW
	2	 0.0	 0.0	 3	   0.000000	   1.572225	   0.000000; % NG
	2	 0.0	 0.0	 3	   0.000000	   0.867424	   0.000000; % COW
	2	 0.0	 0.0	 3	   0.000000	   0.734745	   0.000000; % COW
	2	 0.0	 0.0	 3	   0.000000	   0.879627	   0.000000; % COW
	2	 0.0	 0.0	 3	   0.000000	   0.941501	   0.000000; % COW
	2	 0.0	 0.0	 3	   0.000000	   0.294086	   0.000000; % COW
];

%% branch data
%	fbus	tbus	r	x	b	rateA	rateB	rateC	ratio	angle	status	angmin	angmax
mpc.branch = [
	1	 2	 0.0035	 0.0411	 0.6987	 600.0	 600.0	 600.0	 0.0	 0.0	 1	 -30.0	 30.0;
	1	 39	 0.001	 0.025	 0.75	 1000.0	 1000.0	 1000.0	 0.0	 0.0	 1	 -30.0	 30.0;
	2	 3	 0.0013	 0.0151	 0.2572	 500.0	 500.0	 500.0	 0.0	 0.0	 1	 -30.0	 30.0;
	2	 25	 0.007	 0.0086	 0.146	 500.0	 500.0	 500.0	 0.0	 0.0	 1	 -30.0	 30.0;
	2	 30	 0.0	 0.0181	 0.0	 900.0	 900.0	 2500.0	 1.025	 0.0	 1	 -30.0	 30.0;
	3	 4	 0.0013	 0.0213	 0.2214	 500.0	 500.0	 500.0	 0.0	 0.0	 1	 -30.0	 30.0;
	3	 18	 0.0011	 0.0133	 0.2138	 500.0	 500.0	 500.0	 0.0	 0.0	 1	 -30.0	 30.0;
	4	 5	 0.0008	 0.0128	 0.1342	 600.0	 600.0	 600.0	 0.0	 0.0	 1	 -30.0	 30.0;
	4	 14	 0.0008	 0.0129	 0.1382	 500.0	 500.0	 500.0	 0.0	 0.0	 1	 -30.0	 30.0;
	5	 6	 0.0002	 0.0026	 0.0434	 1200.0	 1200.0	 1200.0	 0.0	 0.0	 1	 -30.0	 30.0;
	5	 8	 0.0008	 0.0112	 0.1476	 900.0	 900.0	 900.0	 0.0	 0.0	 1	 -30.0	 30.0;
	6	 7	 0.0006	 0.0092	 0.113	 900.0	 900.0	 900.0	 0.0	 0.0	 1	 -30.0	 30.0;
	6	 11	 0.0007	 0.0082	 0.1389	 480.0	 480.0	 480.0	 0.0	 0.0	 1	 -30.0	 30.0;
	6	 31	 0.0	 0.025	 0.0	 1800.0	 1800.0	 1800.0	 1.07	 0.0	 1	 -30.0	 30.0;
	7	 8	 0.0004	 0.0046	 0.078	 900.0	 900.0	 900.0	 0.0	 0.0	 1	 -30.0	 30.0;
	8	 9	 0.0023	 0.0363	 0.3804	 900.0	 900.0	 900.0	 0.0	 0.0	 1	 -30.0	 30.0;
	9	 39	 0.001	 0.025	 1.2	 900.0	 900.0	 900.0	 0.0	 0.0	 1	 -30.0	 30.0;
	10	 11	 0.0004	 0.0043	 0.0729	 600.0	 600.0	 600.0	 0.0	 0.0	 1	 -30.0	 30.0;
	10	 13	 0.0004	 0.0043	 0.0729	 600.0	 600.0	 600.0	 0.0	 0.0	 1	 -30.0	 30.0;
	10	 32	 0.0	 0.02	 0.0	 900.0	 900.0	 2500.0	 1.07	 0.0	 1	 -30.0	 30.0;
	12	 11	 0.0016	 0.0435	 0.0	 500.0	 500.0	 500.0	 1.006	 0.0	 1	 -30.0	 30.0;
	12	 13	 0.0016	 0.0435	 0.0	 500.0	 500.0	 500.0	 1.006	 0.0	 1	 -30.0	 30.0;
	13	 14	 0.0009	 0.0101	 0.1723	 600.0	 600.0	 600.0	 0.0	 0.0	 1	 -30.0	 30.0;
	14	 15	 0.0018	 0.0217	 0.366	 600.0	 600.0	 600.0	 0.0	 0.0	 1	 -30.0	 30.0;
	15	 16	 0.0009	 0.0094	 0.171	 600.0	 600.0	 600.0	 0.0	 0.0	 1	 -30.0	 30.0;
	16	 17	 0.0007	 0.0089	 0.1342	 600.0	 600.0	 600.0	 0.0	 0.0	 1	 -30.0	 30.0;
	16	 19	 0.0016	 0.0195	 0.304	 600.0	 600.0	 2500.0	 0.0	 0.0	 1	 -30.0	 30.0;
	16	 21	 0.0008	 0.0135	 0.2548	 600.0	 600.0	 600.0	 0.0	 0.0	 1	 -30.0	 30.0;
	16	 24	 0.0003	 0.0059	 0.068	 600.0	 600.0	 600.0	 0.0	 0.0	 1	 -30.0	 30.0;
	17	 18	 0.0007	 0.0082	 0.1319	 600.0	 600.0	 600.0	 0.0	 0.0	 1	 -30.0	 30.0;
	17	 27	 0.0013	 0.0173	 0.3216	 600.0	 600.0	 600.0	 0.0	 0.0	 1	 -30.0	 30.0;
	19	 20	 0.0007	 0.0138	 0.0	 900.0	 900.0	 2500.0	 1.06	 0.0	 1	 -30.0	 30.0;
	19	 33	 0.0007	 0.0142	 0.0	 900.0	 900.0	 2500.0	 1.07	 0.0	 1	 -30.0	 30.0;
	20	 34	 0.0009	 0.018	 0.0	 900.0	 900.0	 2500.0	 1.009	 0.0	 1	 -30.0	 30.0;
	21	 22	 0.0008	 0.014	 0.2565	 900.0	 900.0	 900.0	 0.0	 0.0	 1	 -30.0	 30.0;
	22	 23	 0.0006	 0.0096	 0.1846	 600.0	 600.0	 600.0	 0.0	 0.0	 1	 -30.0	 30.0;
	22	 35	 0.0	 0.0143	 0.0	 900.0	 900.0	 2500.0	 1.025	 0.0	 1	 -30.0	 30.0;
	23	 24	 0.0022	 0.035	 0.361	 600.0	 600.0	 600.0	 0.0	 0.0	 1	 -30.0	 30.0;
	23	 36	 0.0005	 0.0272	 0.0	 900.0	 900.0	 2500.0	 1.0	 0.0	 1	 -30.0	 30.0;
	25	 26	 0.0032	 0.0323	 0.531	 600.0	 600.0	 600.0	 0.0	 0.0	 1	 -30.0	 30.0;
	25	 37	 0.0006	 0.0232	 0.0	 900.0	 900.0	 2500.0	 1.025	 0.0	 1	 -30.0	 30.0;
	26	 27	 0.0014	 0.0147	 0.2396	 600.0	 600.0	 600.0	 0.0	 0.0	 1	 -30.0	 30.0;
	26	 28	 0.0043	 0.0474	 0.7802	 600.0	 600.0	 600.0	 0.0	 0.0	 1	 -30.0	 30.0;
	26	 29	 0.0057	 0.0625	 1.029	 600.0	 600.0	 600.0	 0.0	 0.0	 1	 -30.0	 30.0;
	28	 29	 0.0014	 0.0151	 0.249	 600.0	 600.0	 600.0	 0.0	 0.0	 1	 -30.0	 30.0;
	29	 38	 0.0008	 0.0156	 0.0	 1200.0	 1200.0	 2500.0	 1.025	 0.0	 1	 -30.0	 30.0;
];

% INFO    : === Translation Options ===
% INFO    : Load Model:                  from file ./nesta_case39_epri.m.api.sol
% INFO    : Gen Active Capacity Model:   stat
% INFO    : Gen Reactive Capacity Model: al50ag
% INFO    : Gen Active Cost Model:       stat
% INFO    : 
% INFO    : === Load Replacement Notes ===
% INFO    : Bus 1	: Pd=97.6, Qd=44.2 -> Pd=160.92, Qd=44.20
% INFO    : Bus 2	: Pd=0.0, Qd=0.0 -> Pd=0.00, Qd=0.00
% INFO    : Bus 3	: Pd=322.0, Qd=2.4 -> Pd=530.89, Qd=2.40
% INFO    : Bus 4	: Pd=500.0, Qd=184.0 -> Pd=824.36, Qd=184.00
% INFO    : Bus 5	: Pd=0.0, Qd=0.0 -> Pd=0.00, Qd=0.00
% INFO    : Bus 6	: Pd=0.0, Qd=0.0 -> Pd=0.00, Qd=0.00
% INFO    : Bus 7	: Pd=233.8, Qd=84.0 -> Pd=385.47, Qd=84.00
% INFO    : Bus 8	: Pd=522.0, Qd=176.6 -> Pd=860.63, Qd=176.60
% INFO    : Bus 9	: Pd=6.5, Qd=-66.6 -> Pd=6.50, Qd=-66.60
% INFO    : Bus 10	: Pd=0.0, Qd=0.0 -> Pd=0.00, Qd=0.00
% INFO    : Bus 11	: Pd=0.0, Qd=0.0 -> Pd=0.00, Qd=0.00
% INFO    : Bus 12	: Pd=8.53, Qd=88.0 -> Pd=14.06, Qd=88.00
% INFO    : Bus 13	: Pd=0.0, Qd=0.0 -> Pd=0.00, Qd=0.00
% INFO    : Bus 14	: Pd=0.0, Qd=0.0 -> Pd=0.00, Qd=0.00
% INFO    : Bus 15	: Pd=320.0, Qd=153.0 -> Pd=527.59, Qd=153.00
% INFO    : Bus 16	: Pd=329.0, Qd=32.3 -> Pd=542.43, Qd=32.30
% INFO    : Bus 17	: Pd=0.0, Qd=0.0 -> Pd=0.00, Qd=0.00
% INFO    : Bus 18	: Pd=158.0, Qd=30.0 -> Pd=260.50, Qd=30.00
% INFO    : Bus 19	: Pd=0.0, Qd=0.0 -> Pd=0.00, Qd=0.00
% INFO    : Bus 20	: Pd=680.0, Qd=103.0 -> Pd=1121.13, Qd=103.00
% INFO    : Bus 21	: Pd=274.0, Qd=115.0 -> Pd=451.75, Qd=115.00
% INFO    : Bus 22	: Pd=0.0, Qd=0.0 -> Pd=0.00, Qd=0.00
% INFO    : Bus 23	: Pd=247.5, Qd=84.6 -> Pd=408.06, Qd=84.60
% INFO    : Bus 24	: Pd=308.6, Qd=-92.2 -> Pd=308.60, Qd=-92.20
% INFO    : Bus 25	: Pd=224.0, Qd=47.2 -> Pd=369.31, Qd=47.20
% INFO    : Bus 26	: Pd=139.0, Qd=17.0 -> Pd=229.17, Qd=17.00
% INFO    : Bus 27	: Pd=281.0, Qd=75.5 -> Pd=463.29, Qd=75.50
% INFO    : Bus 28	: Pd=206.0, Qd=27.6 -> Pd=339.64, Qd=27.60
% INFO    : Bus 29	: Pd=283.5, Qd=26.9 -> Pd=467.41, Qd=26.90
% INFO    : Bus 30	: Pd=0.0, Qd=0.0 -> Pd=0.00, Qd=0.00
% INFO    : Bus 31	: Pd=9.2, Qd=4.6 -> Pd=15.17, Qd=4.60
% INFO    : Bus 32	: Pd=0.0, Qd=0.0 -> Pd=0.00, Qd=0.00
% INFO    : Bus 33	: Pd=0.0, Qd=0.0 -> Pd=0.00, Qd=0.00
% INFO    : Bus 34	: Pd=0.0, Qd=0.0 -> Pd=0.00, Qd=0.00
% INFO    : Bus 35	: Pd=0.0, Qd=0.0 -> Pd=0.00, Qd=0.00
% INFO    : Bus 36	: Pd=0.0, Qd=0.0 -> Pd=0.00, Qd=0.00
% INFO    : Bus 37	: Pd=0.0, Qd=0.0 -> Pd=0.00, Qd=0.00
% INFO    : Bus 38	: Pd=0.0, Qd=0.0 -> Pd=0.00, Qd=0.00
% INFO    : Bus 39	: Pd=1104.0, Qd=250.0 -> Pd=1820.19, Qd=250.00
% INFO    : 
% INFO    : === Generator Setpoint Replacement Notes ===
% INFO    : Gen at bus 30	: Pg=258.533, Qg=140.0 -> Pg=88.0, Qg=236.0
% INFO    : Gen at bus 31	: Pg=529.559, Qg=300.0 -> Pg=1453.0, Qg=711.0
% INFO    : Gen at bus 32	: Pg=659.218, Qg=232.834 -> Pg=805.0, Qg=401.0
% INFO    : Gen at bus 33	: Pg=642.492, Qg=127.223 -> Pg=858.0, Qg=253.0
% INFO    : Gen at bus 34	: Pg=508.0, Qg=145.731 -> Pg=859.0, Qg=250.0
% INFO    : Gen at bus 35	: Pg=661.059, Qg=231.802 -> Pg=864.0, Qg=249.0
% INFO    : Gen at bus 36	: Pg=568.586, Qg=64.03 -> Pg=874.0, Qg=215.0
% INFO    : Gen at bus 37	: Pg=548.967, Qg=0.0 -> Pg=887.0, Qg=3.0
% INFO    : Gen at bus 38	: Pg=840.956, Qg=28.761 -> Pg=1185.0, Qg=187.0
% INFO    : Gen at bus 39	: Pg=1080.329, Qg=-44.972 -> Pg=2329.0, Qg=143.0
% INFO    : 
% INFO    : === Generator Reactive Capacity Atleast Setpoint Value Notes ===
% INFO    : Gen at bus 30	: Qg 236.0, Qmin 140.0, Qmax 400.0 -> Qmin -283.2, Qmax 400.0
% INFO    : Gen at bus 31	: Qg 711.0, Qmin -100.0, Qmax 300.0 -> Qmin -853.2, Qmax 853.2
% INFO    : Gen at bus 32	: Qg 401.0, Qmin 150.0, Qmax 300.0 -> Qmin -481.2, Qmax 481.2
% INFO    : Gen at bus 33	: Qg 253.0, Qmin 0.0, Qmax 250.0 -> Qmin -303.6, Qmax 303.6
% INFO    : Gen at bus 34	: Qg 250.0, Qmin 0.0, Qmax 167.0 -> Qmin -300.0, Qmax 300.0
% INFO    : Gen at bus 35	: Qg 249.0, Qmin -100.0, Qmax 300.0 -> Qmin -298.8, Qmax 300.0
% INFO    : Gen at bus 36	: Qg 215.0, Qmin 0.0, Qmax 240.0 -> Qmin -258.0, Qmax 240.0
% INFO    : Gen at bus 37	: Qg 3.0, Qmin 0.0, Qmax 250.0 -> Qmin -3.6, Qmax 250.0
% INFO    : Gen at bus 38	: Qg 187.0, Qmin -150.0, Qmax 300.0 -> Qmin -224.4, Qmax 300.0
% INFO    : Gen at bus 39	: Qg 143.0, Qmin -100.0, Qmax 300.0 -> Qmin -171.6, Qmax 300.0
% INFO    : 
% INFO    : === Generator Classification Notes ===
% INFO    : COW    9   -    91.58
% INFO    : NG     1   -     8.42
% INFO    : 
% INFO    : === Generator Active Capacity Stat Model Notes ===
% INFO    : Gen at bus 30 - COW	: Pg=88.0, Pmax=1040.0 -> Pmax=181   samples: 1
% WARNING : Failed to find a generator capacity within (1453.0-7265.0) after 100 samples, using percent increase model
% INFO    : Gen at bus 31 - COW	: Pg=1453.0, Pmax=646.0 -> Pmax=1576   samples: 100
% INFO    : Gen at bus 32 - COW	: Pg=805.0, Pmax=725.0 -> Pmax=962   samples: 10
% INFO    : Gen at bus 33 - COW	: Pg=858.0, Pmax=652.0 -> Pmax=1592   samples: 2
% WARNING : Failed to find a generator capacity within (859.0-4295.0) after 100 samples, using percent increase model
% INFO    : Gen at bus 34 - NG	: Pg=859.0, Pmax=508.0 -> Pmax=970   samples: 100
% INFO    : Gen at bus 35 - COW	: Pg=864.0, Pmax=687.0 -> Pmax=868   samples: 4
% INFO    : Gen at bus 36 - COW	: Pg=874.0, Pmax=580.0 -> Pmax=2026   samples: 41
% INFO    : Gen at bus 37 - COW	: Pg=887.0, Pmax=564.0 -> Pmax=1139   samples: 5
% INFO    : Gen at bus 38 - COW	: Pg=1185.0, Pmax=865.0 -> Pmax=1885   samples: 35
% WARNING : Failed to find a generator capacity within (2329.0-11645.0) after 100 samples, using percent increase model
% INFO    : Gen at bus 39 - COW	: Pg=2329.0, Pmax=1100.0 -> Pmax=2526   samples: 100
% INFO    : 
% INFO    : === Generator Active Capacity LB Model Notes ===
% INFO    : 
% INFO    : === Generator Reactive Capacity Atleast Max 50 Percent Active Model Notes ===
% INFO    : Gen at bus 33 - COW	: Pmax 1592.0, Qmin -303.6, Qmax 303.6 -> Qmin -796.0, Qmax 796.0
% INFO    : Gen at bus 34 - NG	: Pmax 970.0, Qmin -300.0, Qmax 300.0 -> Qmin -485.0, Qmax 485.0
% INFO    : Gen at bus 35 - COW	: Pmax 868.0, Qmin -298.8, Qmax 300.0 -> Qmin -434.0, Qmax 434.0
% INFO    : Gen at bus 36 - COW	: Pmax 2026.0, Qmin -258.0, Qmax 240.0 -> Qmin -1013.0, Qmax 1013.0
% INFO    : Gen at bus 37 - COW	: Pmax 1139.0, Qmin -3.6, Qmax 250.0 -> Qmin -570.0, Qmax 570.0
% INFO    : Gen at bus 38 - COW	: Pmax 1885.0, Qmin -224.4, Qmax 300.0 -> Qmin -943.0, Qmax 943.0
% INFO    : Gen at bus 39 - COW	: Pmax 2526.0, Qmin -171.6, Qmax 300.0 -> Qmin -1263.0, Qmax 1263.0
% INFO    : 
% INFO    : === Generator Active Cost Stat Model Notes ===
% INFO    : Updated Generator Cost: COW - 240.0 15.37 0.0105 -> 0 1.16511982201 0
% INFO    : Updated Generator Cost: COW - 200.0 11.29 0.009 -> 0 0.634989326149 0
% INFO    : Updated Generator Cost: COW - 220.0 8.8 0.009 -> 0 0.551479162426 0
% INFO    : Updated Generator Cost: COW - 250.0 8.0 0.0095 -> 0 0.947212438279 0
% INFO    : Updated Generator Cost: NG - 220.0 11.4 0.0085 -> 0 1.5722252782 0
% INFO    : Updated Generator Cost: COW - 190.0 10.45 0.0075 -> 0 0.867424379331 0
% INFO    : Updated Generator Cost: COW - 200.0 10.03 0.009 -> 0 0.734745353755 0
% INFO    : Updated Generator Cost: COW - 210.0 10.15 0.009 -> 0 0.879627473134 0
% INFO    : Updated Generator Cost: COW - 230.0 7.98 0.007 -> 0 0.941500881831 0
% INFO    : Updated Generator Cost: COW - 220.0 8.0 0.006 -> 0 0.294085812562 0
% INFO    : 
% INFO    : === Voltage Setpoint Replacement Notes ===
% INFO    : Bus 1	: V=1.02106, theta=-8.57979 -> V=1.05517, theta=-17.33986
% INFO    : Bus 2	: V=1.04906, theta=-5.41045 -> V=1.04148, theta=-22.02249
% INFO    : Bus 3	: V=1.03886, theta=-8.24051 -> V=1.02315, theta=-25.95329
% INFO    : Bus 4	: V=1.02281, theta=-9.16485 -> V=1.00595, theta=-24.65555
% INFO    : Bus 5	: V=1.02894, theta=-8.1638 -> V=1.01731, theta=-20.41315
% INFO    : Bus 6	: V=1.0328, theta=-7.52826 -> V=1.02235, theta=-19.07403
% INFO    : Bus 7	: V=1.0196, theta=-9.59603 -> V=1.01022, theta=-22.04216
% INFO    : Bus 8	: V=1.01722, theta=-10.06161 -> V=1.0092, theta=-22.56059
% INFO    : Bus 9	: V=1.02865, theta=-9.69153 -> V=1.0581, theta=-16.57143
% INFO    : Bus 10	: V=1.0416, theta=-5.12279 -> V=1.03325, theta=-17.63346
% INFO    : Bus 11	: V=1.03738, theta=-5.94177 -> V=1.02834, theta=-18.15657
% INFO    : Bus 12	: V=1.02467, theta=-5.92136 -> V=1.01417, theta=-18.69417
% INFO    : Bus 13	: V=1.03747, theta=-5.77611 -> V=1.02616, theta=-18.97215
% INFO    : Bus 14	: V=1.03156, theta=-7.30027 -> V=1.01493, theta=-22.24729
% INFO    : Bus 15	: V=1.02925, theta=-7.46573 -> V=1.00733, theta=-25.35133
% INFO    : Bus 16	: V=1.04276, theta=-5.98988 -> V=1.02112, theta=-23.9871
% INFO    : Bus 17	: V=1.04353, theta=-7.0227 -> V=1.02309, theta=-25.5137
% INFO    : Bus 18	: V=1.04045, theta=-7.90692 -> V=1.02134, theta=-26.40315
% INFO    : Bus 19	: V=1.06, theta=-1.3472 -> V=1.05686, theta=-18.18132
% INFO    : Bus 20	: V=0.99765, theta=-2.72741 -> V=1.01097, theta=-20.62322
% INFO    : Bus 21	: V=1.04163, theta=-3.54132 -> V=1.01337, theta=-20.97308
% INFO    : Bus 22	: V=1.0584, theta=0.92111 -> V=1.02923, theta=-14.4251
% INFO    : Bus 23	: V=1.05102, theta=0.73891 -> V=1.02497, theta=-14.45875
% INFO    : Bus 24	: V=1.04756, theta=-5.84768 -> V=1.02441, theta=-23.48478
% INFO    : Bus 25	: V=1.06, theta=-4.02571 -> V=1.04295, theta=-19.99555
% INFO    : Bus 26	: V=1.05983, theta=-5.14581 -> V=1.04313, theta=-23.85158
% INFO    : Bus 27	: V=1.04658, theta=-7.14352 -> V=1.02641, theta=-26.57426
% INFO    : Bus 28	: V=1.0597, theta=-1.56636 -> V=1.05352, theta=-20.40545
% INFO    : Bus 29	: V=1.06, theta=1.18239 -> V=1.06, theta=-16.67083
% INFO    : Bus 30	: V=1.04671, theta=-2.90692 -> V=1.06, theta=-22.02249
% INFO    : Bus 31	: V=1.0287, theta=0.0 -> V=1.06, theta=0.0
% INFO    : Bus 32	: V=1.01075, theta=2.57794 -> V=1.02376, theta=-8.05997
% INFO    : Bus 33	: V=1.00896, theta=3.83858 -> V=1.00883, theta=-10.9982
% INFO    : Bus 34	: V=1.0151, theta=2.42458 -> V=1.06, theta=-12.78307
% INFO    : Bus 35	: V=1.06, theta=5.8757 -> V=1.03117, theta=-7.56023
% INFO    : Bus 36	: V=1.06, theta=8.70177 -> V=1.06, theta=-1.88362
% INFO    : Bus 37	: V=1.02992, theta=2.84196 -> V=0.9957, theta=-8.35687
% INFO    : Bus 38	: V=1.03722, theta=8.19516 -> V=1.05721, theta=-7.02647
% INFO    : Bus 39	: V=1.0, theta=-9.24794 -> V=1.06, theta=-12.44432
% INFO    : 
% INFO    : === Generator Setpoint Replacement Notes ===
% INFO    : Gen at bus 30	: Pg=88.0, Qg=236.0 -> Pg=0.0, Qg=257.198
% INFO    : Gen at bus 30	: Vg=1.04671 -> Vg=1.06
% INFO    : Gen at bus 31	: Pg=1453.0, Qg=711.0 -> Pg=1339.05, Qg=670.25
% INFO    : Gen at bus 31	: Vg=1.0287 -> Vg=1.06
% INFO    : Gen at bus 32	: Pg=805.0, Qg=401.0 -> Pg=822.08, Qg=366.313
% INFO    : Gen at bus 32	: Vg=1.01075 -> Vg=1.02376
% INFO    : Gen at bus 33	: Pg=858.0, Qg=253.0 -> Pg=885.396, Qg=161.473
% INFO    : Gen at bus 33	: Vg=1.00896 -> Vg=1.00883
% INFO    : Gen at bus 34	: Pg=859.0, Qg=250.0 -> Pg=822.662, Qg=355.878
% INFO    : Gen at bus 34	: Vg=1.0151 -> Vg=1.06
% INFO    : Gen at bus 35	: Pg=864.0, Qg=249.0 -> Pg=865.468, Qg=246.912
% INFO    : Gen at bus 35	: Vg=1.06 -> Vg=1.03117
% INFO    : Gen at bus 36	: Pg=874.0, Qg=215.0 -> Pg=873.626, Qg=216.281
% INFO    : Gen at bus 36	: Vg=1.06 -> Vg=1.06
% INFO    : Gen at bus 37	: Pg=887.0, Qg=3.0 -> Pg=880.299, Qg=-26.619
% INFO    : Gen at bus 37	: Vg=1.02992 -> Vg=0.9957
% INFO    : Gen at bus 38	: Pg=1185.0, Qg=187.0 -> Pg=1184.112, Qg=194.626
% INFO    : Gen at bus 38	: Vg=1.03722 -> Vg=1.05721
% INFO    : Gen at bus 39	: Pg=2329.0, Qg=143.0 -> Pg=2526.0, Qg=168.719
% INFO    : Gen at bus 39	: Vg=1.0 -> Vg=1.06
% INFO    : 
% INFO    : === Writing Matpower Case File Notes ===
